@<TRIPOS>MOLECULE
gtp.pdb
 48 50 0 0 0
SMALL
GASTEIGER

@<TRIPOS>ATOM
      1  PG         1.6370  -43.0740   30.8840 P.3   291  XXX291      0.4808
      2  O1G        2.6120  -43.6970   29.9570 O.2   291  XXX291     -0.2271
      3  O2G        1.1960  -41.5840   30.4120 O.3   291  XXX291     -0.3023
      4  O3G        0.3190  -44.0580   30.9270 O.3   291  XXX291     -0.3023
      5  O3B        2.0790  -42.9670   32.3870 O.3   291  XXX291     -0.1859
      6  PB         3.5380  -42.6040   32.5490 P.3   291  XXX291      0.4918
      7  O1B        3.6110  -41.1400   32.8310 O.3   291  XXX291     -0.3019
      8  O2B        4.2140  -43.1540   31.3270 O.2   291  XXX291     -0.2265
      9  O3A        4.0580  -43.4310   33.8510 O.3   291  XXX291     -0.1858
     10  PA         5.1250  -44.6210   33.6260 P.3   291  XXX291      0.4835
     11  O1A        4.9510  -45.4810   34.8110 O.3   291  XXX291     -0.3022
     12  O2A        6.4790  -44.0720   33.3070 O.2   291  XXX291     -0.2269
     13  O5'        4.4330  -45.3450   32.2940 O.3   291  XXX291     -0.2837
     14  C5'        5.0990  -45.4330   31.0070 C.3   291  XXX291      0.0879
     15  C4'        6.0530  -46.6470   30.9890 C.3   291  XXX291      0.1134
     16  O4'        7.3130  -46.1780   31.5510 O.3   291  XXX291     -0.3456
     17  C3'        5.5520  -47.7810   31.9470 C.3   291  XXX291      0.1135
     18  O3'        4.8420  -48.7940   31.2160 O.3   291  XXX291     -0.3864
     19  C2'        6.8200  -48.3700   32.6100 C.3   291  XXX291      0.1285
     20  O2'        7.1240  -49.7520   32.1930 O.3   291  XXX291     -0.3847
     21  C1'        7.9490  -47.3670   32.2150 C.3   291  XXX291      0.1667
     22  N9         8.8030  -46.9880   33.4260 N.ar  291  XXX291     -0.2854
     23  C8         8.9280  -45.7550   33.9740 C.ar  291  XXX291      0.1005
     24  N7         9.7670  -45.8000   35.0180 N.ar  291  XXX291     -0.2286
     25  C5        10.1800  -47.0680   35.1230 C.ar  291  XXX291      0.1721
     26  C6        11.0450  -47.6970   35.9970 C.ar  291  XXX291      0.2803
     27  O6        11.5700  -47.0510   36.8990 O.2   291  XXX291     -0.2654
     28  N1        11.2940  -49.0680   35.8430 N.ar  291  XXX291     -0.2934
     29  C2        10.6560  -49.8140   34.8330 C.ar  291  XXX291      0.1950
     30  N2        10.8990  -51.1280   34.7100 N.pl3 291  XXX291     -0.3289
     31  N3         9.8180  -49.1720   34.0020 N.ar  291  XXX291     -0.1963
     32  C4         9.5760  -47.8370   34.1200 C.ar  291  XXX291      0.1712
     33 H           0.9149  -41.6088   29.4840 H     291  XXX291      0.2220
     34 H          -0.0232  -44.1796   30.0275 H     291  XXX291      0.2220
     35 H           3.3014  -40.6456   32.0560 H     291  XXX291      0.2220
     36 H           5.5623  -46.2323   34.7578 H     291  XXX291      0.2220
     37 H           4.3662  -45.5466   30.2357 H     291  XXX291      0.0592
     38 H           5.6639  -44.5394   30.8416 H     291  XXX291      0.0592
     39 H           6.1251  -47.0270   29.9914 H     291  XXX291      0.0647
     40 H           4.8704  -47.3987   32.6779 H     291  XXX291      0.0647
     41 H           5.4241  -49.1714   30.5380 H     291  XXX291      0.2100
     42 H           6.6993  -48.4649   33.6689 H     291  XXX291      0.0665
     43 H           7.2539  -49.7786   31.2321 H     291  XXX291      0.2101
     44 H           8.6250  -47.8225   31.5219 H     291  XXX291      0.0866
     45 H           8.4477  -44.9061   33.6369 H     291  XXX291      0.1030
     46 H          11.9252  -49.5167   36.4508 H     291  XXX291      0.1716
     47 H          10.4518  -51.6473   34.0032 H     291  XXX291      0.1451
     48 H          11.5245  -51.5728   35.3266 H     291  XXX291      0.1451
@<TRIPOS>BOND
     1     2     1    2
     2     3     1    1
     3     1     4    1
     4     1     5    1
     5    15    14    1
     6    15    16    1
     7    15    17    1
     8    14    13    1
     9    18    17    1
    10     8     6    2
    11    16    21    1
    12    17    19    1
    13    20    19    1
    14    21    19    1
    15    21    22    1
    16    13    10    1
    17     5     6    1
    18     6     7    1
    19     6     9    1
    20    12    10    2
    21    22    23   ar
    22    22    32   ar
    23    10     9    1
    24    10    11    1
    25    23    24   ar
    26    31    32   ar
    27    31    29   ar
    28    32    25   ar
    29    30    29    1
    30    29    28   ar
    31    24    25   ar
    32    25    26   ar
    33    28    26   ar
    34    26    27    2
    35     3    33    1
    36     4    34    1
    37     7    35    1
    38    11    36    1
    39    14    37    1
    40    14    38    1
    41    15    39    1
    42    17    40    1
    43    18    41    1
    44    19    42    1
    45    20    43    1
    46    21    44    1
    47    23    45    1
    48    28    46    1
    49    30    47    1
    50    30    48    1
